# List of source files which contain translatable strings.
src/gui/actuator.h
src/gui/gain.h
src/gui/MyFrame.h
src/gui/actuator_dlg.cpp
src/gui/TreeItem.h
src/gui/AircraftDialog.cpp
src/gui/func_dlg.h
src/gui/doc.h
src/gui/condition.cpp
src/gui/AircraftDialog.h
src/gui/switch.cpp
src/gui/When_Diag.cpp
src/gui/kinemat.h
src/gui/deadband.cpp
src/gui/fcsprop_dlg.h
src/gui/Engine_Diag.h
src/gui/Turbine_Diag.cpp
src/gui/filter_dlg.h
src/gui/Mass_Diag.h
src/gui/ResultShow_Diag.cpp
src/gui/sum.cpp
src/gui/toolbar.cpp
src/gui/kinemat_dlg.cpp
src/gui/AeroDynamics_Diag.cpp
src/gui/Axis_Diag.h
src/gui/Propulsion_Diag.cpp
src/gui/TreeItem.cpp
src/gui/pid_dlg.cpp
src/gui/import.h
src/gui/import.cpp
src/gui/toolbar.h
src/gui/func.cpp
src/gui/view.cpp
src/gui/doc.cpp
src/gui/Turbine_Diag.h
src/gui/When_Diag.h
src/gui/Table_Diag.h
src/gui/filter.cpp
src/gui/kinemat.cpp
src/gui/shape.h
src/gui/Axis_Diag.cpp
src/gui/pid.h
src/gui/EngineMgr_Diag.h
src/gui/deadband_dlg.cpp
src/gui/gain.cpp
src/gui/sum_dlg.h
src/gui/filter_dlg.cpp
src/gui/filter.h
src/gui/switch_dlg.h
src/gui/sensor_dlg.h
src/gui/ResultShow_Diag.h
src/gui/Function_Diag.h
src/gui/view.h
src/gui/gain_dlg.h
src/gui/func.h
src/gui/Propulsion_Diag.h
src/gui/pid_dlg.h
src/gui/Property_Diag.h
src/gui/shape.cpp
src/gui/Function_Diag.cpp
src/gui/MyFrame.cpp
src/gui/condition.h
src/gui/Engine_Diag.cpp
src/gui/fcsprop_dlg.cpp
src/gui/Property_Diag.cpp
src/gui/LGear_Diag.cpp
src/gui/deadband.h
src/gui/actuator.cpp
src/gui/sensor.cpp
src/gui/func_dlg.cpp
src/gui/LGear_Diag.h
src/gui/sum.h
src/gui/AeroDynamics_Diag.h
src/gui/actuator_dlg.h
src/gui/Table_Diag.cpp
src/gui/deadband_dlg.h
src/gui/EngineMgr_Diag.cpp
src/gui/switch.h
src/gui/Mass_Diag.cpp
src/gui/pid.cpp
src/gui/kinemat_dlg.h
src/gui/gain_dlg.cpp
src/gui/sensor_dlg.cpp
src/gui/sum_dlg.cpp
src/gui/sensor.h
src/gui/switch_dlg.cpp
src/Commander.cpp
src/MyApp.cpp
src/FGJSBBase.cpp
src/initprops.h
src/MyApp.h
src/rc/trans.cpp

